Version 4
SHEET 1 2576 804
WIRE 1584 -240 1472 -240
WIRE 1776 -240 1584 -240
WIRE 1888 -240 1776 -240
WIRE 2096 -240 1888 -240
WIRE 1472 -128 1472 -240
WIRE 1584 -128 1584 -240
WIRE 2096 -48 2096 -240
WIRE 128 16 -304 16
WIRE 272 16 208 16
WIRE 416 16 336 16
WIRE 512 16 480 16
WIRE 560 16 512 16
WIRE 800 16 624 16
WIRE 864 16 800 16
WIRE 1008 16 944 16
WIRE 1200 16 1008 16
WIRE 1584 16 1584 -48
WIRE 1584 16 1264 16
WIRE 1696 16 1584 16
WIRE 1776 32 1776 -240
WIRE -304 48 -304 16
WIRE 1584 48 1584 16
WIRE 1584 48 1568 48
WIRE 1696 48 1696 16
WIRE 1744 48 1696 48
WIRE 2000 64 1808 64
WIRE 2096 64 2096 32
WIRE 2096 64 2000 64
WIRE 1472 80 1472 -48
WIRE 1472 80 1456 80
WIRE 1744 80 1472 80
WIRE 272 96 272 16
WIRE 512 96 512 16
WIRE 512 96 272 96
WIRE 1008 128 1008 16
WIRE 1200 128 1008 128
WIRE 1376 128 1264 128
WIRE 1456 128 1456 80
WIRE 1456 128 1376 128
WIRE 2096 144 2096 64
WIRE -304 160 -304 128
WIRE 272 176 272 96
WIRE 1456 176 1456 128
WIRE 1568 176 1568 48
WIRE 1008 208 1008 128
WIRE 1888 240 1888 -240
WIRE -304 256 -304 240
WIRE 2096 272 2096 224
WIRE 272 304 272 240
WIRE 528 304 272 304
WIRE 1008 320 1008 288
WIRE 1456 320 1456 256
WIRE 1456 320 1008 320
WIRE 1568 320 1568 256
WIRE 1568 320 1456 320
WIRE -304 384 -304 336
WIRE 128 384 -304 384
WIRE 272 384 272 304
WIRE 272 384 208 384
WIRE 336 384 336 16
WIRE 416 384 336 384
WIRE 528 384 528 304
WIRE 528 384 480 384
WIRE 560 384 528 384
WIRE 800 384 800 16
WIRE 800 384 624 384
WIRE 1696 400 1680 400
WIRE 1776 400 1776 96
WIRE 1776 400 1696 400
WIRE 1888 400 1888 320
WIRE 1888 400 1776 400
WIRE 2096 400 2096 352
WIRE 2096 400 1888 400
WIRE 1696 464 1696 400
WIRE 800 496 800 384
WIRE 336 624 336 384
WIRE 800 624 800 560
WIRE 1008 624 1008 320
FLAG 800 624 0
FLAG 1008 624 0
FLAG 1696 464 0
FLAG 336 624 0
FLAG 1376 128 +
FLAG 2000 64 out
SYMBOL voltage -304 32 R0
WINDOW 123 0 0 Left 0
WINDOW 39 0 0 Left 0
SYMATTR InstName V1
SYMATTR Value PULSE(0 4 3m 100n 100n 200u 400u 5)
SYMBOL voltage -304 240 R0
WINDOW 123 0 0 Left 0
WINDOW 39 0 0 Left 0
SYMATTR InstName V2
SYMATTR Value 6.1
SYMBOL ind 224 0 R90
WINDOW 0 5 56 VBottom 2
WINDOW 3 32 56 VTop 2
SYMATTR InstName L1
SYMATTR Value 4µ7
SYMBOL ind 224 368 R90
WINDOW 0 5 56 VBottom 2
WINDOW 3 32 56 VTop 2
SYMATTR InstName 4u7
SYMATTR Value 4µ7
SYMBOL schottky 416 32 R270
WINDOW 0 32 32 VTop 2
WINDOW 3 0 32 VBottom 2
SYMATTR InstName D1
SYMATTR Value BAT54
SYMATTR Description Diode
SYMATTR Type diode
SYMBOL schottky 560 32 R270
WINDOW 0 32 32 VTop 2
WINDOW 3 0 32 VBottom 2
SYMATTR InstName D2
SYMATTR Value BAT54
SYMATTR Description Diode
SYMATTR Type diode
SYMBOL schottky 416 400 R270
WINDOW 0 32 32 VTop 2
WINDOW 3 0 32 VBottom 2
SYMATTR InstName D3
SYMATTR Value BAT54
SYMATTR Description Diode
SYMATTR Type diode
SYMBOL schottky 560 400 R270
WINDOW 0 32 32 VTop 2
WINDOW 3 0 32 VBottom 2
SYMATTR InstName D4
SYMATTR Value BAT54
SYMATTR Description Diode
SYMATTR Type diode
SYMBOL schottky 816 560 R180
WINDOW 0 24 64 Left 2
WINDOW 3 24 0 Left 2
SYMATTR InstName D5
SYMATTR Value BAT46WJ
SYMATTR Description Diode
SYMATTR Type diode
SYMBOL res 992 192 R0
SYMATTR InstName R1
SYMATTR Value 1k8
SYMBOL res 960 0 R90
WINDOW 0 0 56 VBottom 2
WINDOW 3 32 56 VTop 2
SYMATTR InstName R2
SYMATTR Value 10k
SYMBOL voltage 1888 224 R0
WINDOW 123 0 0 Left 0
WINDOW 39 0 0 Left 0
SYMATTR InstName V3
SYMATTR Value 5
SYMBOL voltage -304 144 R0
WINDOW 123 0 0 Left 0
WINDOW 39 0 0 Left 0
SYMATTR InstName V4
SYMATTR Value PULSE(0 0.5 0 100n 100n 200u 400u 5)
SYMBOL res 1440 160 R0
SYMATTR InstName R3
SYMATTR Value 47k
SYMBOL OpAmps\\opamp2 1776 0 R0
SYMATTR InstName U2
SYMATTR Value LM393
SYMBOL res 2080 -64 R0
SYMATTR InstName R7
SYMATTR Value 4k7
SYMBOL cap 1264 112 R90
WINDOW 0 0 32 VBottom 2
WINDOW 3 32 32 VTop 2
SYMATTR InstName C1
SYMATTR Value 10µ
SYMBOL cap 1264 0 R90
WINDOW 0 0 32 VBottom 2
WINDOW 3 32 32 VTop 2
SYMATTR InstName C2
SYMATTR Value 1n
SYMBOL res 1568 -144 R0
SYMATTR InstName R8
SYMATTR Value 1500k
SYMBOL res 2080 128 R0
SYMATTR InstName R4
SYMATTR Value 10k
SYMBOL res 2080 256 R0
SYMATTR InstName R9
SYMATTR Value 15k
SYMBOL res 1552 160 R0
SYMATTR InstName R5
SYMATTR Value 10k
TEXT -128 648 Left 2 !.tran 10m
TEXT 1344 648 Left 2 !.inc LM393.5_1
TEXT 1336 720 Left 2 !.inc LM339.sub
